<routes>
    <vType id="car" accel="0.8" decel="4.5" sigma="0.5" length="5" minGap="2.5" maxSpeed="16.67" guiShape="passenger"/>
    
    <!-- Create routes for the 3x3 grid -->
    <!-- Horizontal routes (West to East) -->
    <route id="route_WE_0" edges="A0B0 B0C0"/>
    <route id="route_WE_1" edges="A1B1 B1C1"/>
    <route id="route_WE_2" edges="A2B2 B2C2"/>
    
    <!-- Horizontal routes (East to West) -->
    <route id="route_EW_0" edges="C0B0 B0A0"/>
    <route id="route_EW_1" edges="C1B1 B1A1"/>
    <route id="route_EW_2" edges="C2B2 B2A2"/>
    
    <!-- Vertical routes (South to North) -->
    <route id="route_SN_0" edges="A0A1 A1A2"/>
    <route id="route_SN_1" edges="B0B1 B1B2"/>
    <route id="route_SN_2" edges="C0C1 C1C2"/>
    
    <!-- Vertical routes (North to South) -->
    <route id="route_NS_0" edges="A2A1 A1A0"/>
    <route id="route_NS_1" edges="B2B1 B1B0"/>
    <route id="route_NS_2" edges="C2C1 C1C0"/>
    
    <!-- Multi-turn routes (instead of diagonals) -->
    <route id="route_NW_SE" edges="A2A1 A1B1 B1C1 C1C0"/>
    <route id="route_NE_SW" edges="C2C1 C1B1 B1A1 A1A0"/>
    <route id="route_SW_NE" edges="A0A1 A1B1 B1C1 C1C2"/>
    <route id="route_SE_NW" edges="C0C1 C1B1 B1A1 A1A2"/>
    
    <!-- Add flows for continuous vehicle insertion -->
    <flow id="flow_WE_0" type="car" route="route_WE_0" begin="0" end="1000" vehsPerHour="300"/>
    <flow id="flow_WE_1" type="car" route="route_WE_1" begin="0" end="1000" vehsPerHour="300"/>
    <flow id="flow_WE_2" type="car" route="route_WE_2" begin="0" end="1000" vehsPerHour="300"/>
    
    <flow id="flow_EW_0" type="car" route="route_EW_0" begin="0" end="1000" vehsPerHour="300"/>
    <flow id="flow_EW_1" type="car" route="route_EW_1" begin="0" end="1000" vehsPerHour="300"/>
    <flow id="flow_EW_2" type="car" route="route_EW_2" begin="0" end="1000" vehsPerHour="300"/>
    
    <flow id="flow_SN_0" type="car" route="route_SN_0" begin="0" end="1000" vehsPerHour="200"/>
    <flow id="flow_SN_1" type="car" route="route_SN_1" begin="0" end="1000" vehsPerHour="200"/>
    <flow id="flow_SN_2" type="car" route="route_SN_2" begin="0" end="1000" vehsPerHour="200"/>
    
    <flow id="flow_NS_0" type="car" route="route_NS_0" begin="0" end="1000" vehsPerHour="200"/>
    <flow id="flow_NS_1" type="car" route="route_NS_1" begin="0" end="1000" vehsPerHour="200"/>
    <flow id="flow_NS_2" type="car" route="route_NS_2" begin="0" end="1000" vehsPerHour="200"/>
    
    <flow id="flow_NW_SE" type="car" route="route_NW_SE" begin="0" end="1000" vehsPerHour="100"/>
    <flow id="flow_NE_SW" type="car" route="route_NE_SW" begin="0" end="1000" vehsPerHour="100"/>
    <flow id="flow_SW_NE" type="car" route="route_SW_NE" begin="0" end="1000" vehsPerHour="100"/>
    <flow id="flow_SE_NW" type="car" route="route_SE_NW" begin="0" end="1000" vehsPerHour="100"/>
</routes>