<?xml version='1.0' encoding='UTF-8'?>
<routes xmlns:xsi="http://www.w3.org/2001/XMLSchema-instance" xsi:noNamespaceSchemaLocation="http://sumo.dlr.de/xsd/routes_file.xsd">
    <!-- Vehicle type definitions -->
    <vType id="car" accel="2.9" decel="7.5" sigma="0.5" length="5" minGap="2.5" maxSpeed="16.67" guiShape="passenger"/>
    <vType id="bus" accel="1.2" decel="5.0" sigma="0.5" length="12" minGap="3.0" maxSpeed="12.5" guiShape="bus"/>
    <vType id="truck" accel="1.0" decel="5.0" sigma="0.5" length="15" minGap="3.0" maxSpeed="13.89" guiShape="truck"/>
    <vType id="emergency" accel="3.5" decel="9.0" sigma="0.5" length="5" minGap="2.5" maxSpeed="22.22" guiShape="emergency" vClass="emergency"/>
    
    <!-- Route definitions using the grid network -->
    <route id="route_north_south" edges="A1A0 A0B0"/>
    <route id="route_south_north" edges="B0A0 A0A1"/>
    <route id="route_east_west" edges="B1B0 B0A0"/>
    <route id="route_west_east" edges="A0B0 B0B1"/>
    <route id="route_clockwise" edges="A0A1 A1B1 B1B0 B0A0"/>
    <route id="route_counterclockwise" edges="A0B0 B0B1 B1A1 A1A0"/>
    
    <!-- Flow definitions will be added by specific scenarios -->
<flow id="flow_0" type="car" route="route_north_south" begin="0" end="3600" vehsPerHour="300"/><flow id="flow_1" type="car" route="route_south_north" begin="0" end="3600" vehsPerHour="300"/><flow id="flow_2" type="car" route="route_east_west" begin="0" end="3600" vehsPerHour="200"/><flow id="flow_3" type="car" route="route_west_east" begin="0" end="3600" vehsPerHour="200"/><flow id="flow_4" type="car" route="route_clockwise" begin="0" end="3600" vehsPerHour="100"/><flow id="flow_5" type="car" route="route_counterclockwise" begin="0" end="3600" vehsPerHour="100"/><vehicle id="truck_0" type="truck" route="route_east_west" depart="911"/><vehicle id="emergency_1" type="emergency" route="route_west_east" depart="2994"/><vehicle id="emergency_2" type="emergency" route="route_counterclockwise" depart="3085"/><vehicle id="emergency_3" type="emergency" route="route_south_north" depart="1394"/><vehicle id="truck_4" type="truck" route="route_counterclockwise" depart="217"/><vehicle id="truck_5" type="truck" route="route_north_south" depart="3260"/><vehicle id="emergency_6" type="emergency" route="route_south_north" depart="1319"/><vehicle id="bus_7" type="bus" route="route_counterclockwise" depart="274"/><vehicle id="truck_8" type="truck" route="route_counterclockwise" depart="2604"/><vehicle id="bus_9" type="bus" route="route_counterclockwise" depart="1087"/><vehicle id="bus_10" type="bus" route="route_counterclockwise" depart="1495"/><vehicle id="truck_11" type="truck" route="route_clockwise" depart="1500"/><flow id="flow_0" type="car" route="route_north_south" begin="0" end="3600" vehsPerHour="600"/><flow id="flow_1" type="car" route="route_south_north" begin="0" end="3600" vehsPerHour="600"/><flow id="flow_2" type="car" route="route_east_west" begin="0" end="3600" vehsPerHour="400"/><flow id="flow_3" type="car" route="route_west_east" begin="0" end="3600" vehsPerHour="400"/><flow id="flow_4" type="car" route="route_clockwise" begin="0" end="3600" vehsPerHour="200"/><flow id="flow_5" type="car" route="route_counterclockwise" begin="0" end="3600" vehsPerHour="200"/><vehicle id="truck_0" type="truck" route="route_south_north" depart="753"/><vehicle id="truck_1" type="truck" route="route_counterclockwise" depart="1454"/><vehicle id="truck_2" type="truck" route="route_counterclockwise" depart="1588"/><vehicle id="bus_3" type="bus" route="route_west_east" depart="1557"/><vehicle id="bus_4" type="bus" route="route_south_north" depart="3033"/><vehicle id="bus_5" type="bus" route="route_clockwise" depart="1420"/><vehicle id="emergency_6" type="emergency" route="route_counterclockwise" depart="91"/><vehicle id="emergency_7" type="emergency" route="route_south_north" depart="2647"/><vehicle id="truck_8" type="truck" route="route_counterclockwise" depart="3516"/><vehicle id="bus_9" type="bus" route="route_east_west" depart="1496"/><vehicle id="bus_10" type="bus" route="route_clockwise" depart="3143"/><vehicle id="emergency_11" type="emergency" route="route_clockwise" depart="2506"/><vehicle id="bus_12" type="bus" route="route_east_west" depart="2067"/><vehicle id="emergency_13" type="emergency" route="route_west_east" depart="354"/><vehicle id="emergency_14" type="emergency" route="route_clockwise" depart="856"/><vehicle id="emergency_15" type="emergency" route="route_west_east" depart="3536"/><vehicle id="bus_16" type="bus" route="route_south_north" depart="1434"/><vehicle id="bus_17" type="bus" route="route_east_west" depart="3555"/><vehicle id="emergency_18" type="emergency" route="route_clockwise" depart="3291"/><vehicle id="truck_19" type="truck" route="route_east_west" depart="2075"/><vehicle id="truck_20" type="truck" route="route_clockwise" depart="139"/><vehicle id="truck_21" type="truck" route="route_east_west" depart="3229"/><vehicle id="truck_22" type="truck" route="route_clockwise" depart="269"/><vehicle id="truck_23" type="truck" route="route_clockwise" depart="1723"/><flow id="flow_0" type="car" route="route_north_south" begin="0" end="3600" vehsPerHour="1200"/><flow id="flow_1" type="car" route="route_south_north" begin="0" end="3600" vehsPerHour="1200"/><flow id="flow_2" type="car" route="route_east_west" begin="0" end="3600" vehsPerHour="800"/><flow id="flow_3" type="car" route="route_west_east" begin="0" end="3600" vehsPerHour="800"/><flow id="flow_4" type="car" route="route_clockwise" begin="0" end="3600" vehsPerHour="400"/><flow id="flow_5" type="car" route="route_counterclockwise" begin="0" end="3600" vehsPerHour="400"/><vehicle id="truck_0" type="truck" route="route_counterclockwise" depart="521"/><vehicle id="emergency_1" type="emergency" route="route_north_south" depart="1814"/><vehicle id="bus_2" type="bus" route="route_north_south" depart="1037"/><vehicle id="bus_3" type="bus" route="route_north_south" depart="1661"/><vehicle id="bus_4" type="bus" route="route_west_east" depart="2303"/><vehicle id="emergency_5" type="emergency" route="route_south_north" depart="2430"/><vehicle id="emergency_6" type="emergency" route="route_north_south" depart="1870"/><vehicle id="emergency_7" type="emergency" route="route_counterclockwise" depart="209"/><vehicle id="bus_8" type="bus" route="route_south_north" depart="427"/><vehicle id="bus_9" type="bus" route="route_clockwise" depart="1824"/><vehicle id="bus_10" type="bus" route="route_east_west" depart="450"/><vehicle id="emergency_11" type="emergency" route="route_west_east" depart="49"/><vehicle id="truck_12" type="truck" route="route_north_south" depart="2034"/><vehicle id="emergency_13" type="emergency" route="route_counterclockwise" depart="1013"/><vehicle id="truck_14" type="truck" route="route_north_south" depart="3539"/><vehicle id="bus_15" type="bus" route="route_east_west" depart="46"/><vehicle id="emergency_16" type="emergency" route="route_south_north" depart="2336"/><vehicle id="emergency_17" type="emergency" route="route_clockwise" depart="352"/><vehicle id="bus_18" type="bus" route="route_west_east" depart="696"/><vehicle id="bus_19" type="bus" route="route_east_west" depart="549"/><vehicle id="bus_20" type="bus" route="route_east_west" depart="1513"/><vehicle id="bus_21" type="bus" route="route_west_east" depart="3509"/><vehicle id="bus_22" type="bus" route="route_north_south" depart="2543"/><vehicle id="emergency_23" type="emergency" route="route_west_east" depart="1585"/><vehicle id="truck_24" type="truck" route="route_counterclockwise" depart="1957"/><vehicle id="emergency_25" type="emergency" route="route_north_south" depart="1790"/><vehicle id="emergency_26" type="emergency" route="route_clockwise" depart="2318"/><vehicle id="bus_27" type="bus" route="route_north_south" depart="2597"/><vehicle id="emergency_28" type="emergency" route="route_east_west" depart="2931"/><vehicle id="bus_29" type="bus" route="route_clockwise" depart="1484"/><vehicle id="emergency_30" type="emergency" route="route_north_south" depart="3222"/><vehicle id="bus_31" type="bus" route="route_south_north" depart="3219"/><vehicle id="truck_32" type="truck" route="route_south_north" depart="1622"/><vehicle id="bus_33" type="bus" route="route_west_east" depart="2492"/><vehicle id="bus_34" type="bus" route="route_south_north" depart="2324"/><vehicle id="emergency_35" type="emergency" route="route_west_east" depart="759"/><vehicle id="truck_36" type="truck" route="route_clockwise" depart="3050"/><vehicle id="bus_37" type="bus" route="route_counterclockwise" depart="662"/><vehicle id="bus_38" type="bus" route="route_clockwise" depart="3077"/><vehicle id="bus_39" type="bus" route="route_counterclockwise" depart="2247"/><vehicle id="truck_40" type="truck" route="route_north_south" depart="5"/><vehicle id="emergency_41" type="emergency" route="route_clockwise" depart="2259"/><vehicle id="bus_42" type="bus" route="route_east_west" depart="2257"/><vehicle id="emergency_43" type="emergency" route="route_west_east" depart="2859"/><vehicle id="truck_44" type="truck" route="route_south_north" depart="3106"/><vehicle id="bus_45" type="bus" route="route_south_north" depart="1559"/><vehicle id="bus_46" type="bus" route="route_west_east" depart="2981"/><vehicle id="bus_47" type="bus" route="route_south_north" depart="2937"/></routes>
