<?xml version='1.0' encoding='UTF-8'?>
<routes xmlns:xsi="http://www.w3.org/2001/XMLSchema-instance" xsi:noNamespaceSchemaLocation="http://sumo.dlr.de/xsd/routes_file.xsd">
    <!-- Vehicle type definitions -->
    <vType id="car" accel="2.9" decel="7.5" sigma="0.5" length="5" minGap="2.5" maxSpeed="16.67" guiShape="passenger"/>
    <vType id="bus" accel="1.2" decel="5.0" sigma="0.5" length="12" minGap="3.0" maxSpeed="12.5" guiShape="bus"/>
    <vType id="truck" accel="1.0" decel="5.0" sigma="0.5" length="15" minGap="3.0" maxSpeed="13.89" guiShape="truck"/>
    <vType id="emergency" accel="3.5" decel="9.0" sigma="0.5" length="5" minGap="2.5" maxSpeed="22.22" guiShape="emergency" vClass="emergency"/>
    
    <!-- Route definitions using the grid network -->
    <route id="route_north_south" edges="A1A0 A0B0"/>
    <route id="route_south_north" edges="B0A0 A0A1"/>
    <route id="route_east_west" edges="B1B0 B0A0"/>
    <route id="route_west_east" edges="A0B0 B0B1"/>
    <route id="route_clockwise" edges="A0A1 A1B1 B1B0 B0A0"/>
    <route id="route_counterclockwise" edges="A0B0 B0B1 B1A1 A1A0"/>
    
    <!-- Flow definitions will be added by specific scenarios -->
<flow id="flow_0" type="car" route="route_north_south" begin="0" end="3600" vehsPerHour="300"/><flow id="flow_1" type="car" route="route_south_north" begin="0" end="3600" vehsPerHour="300"/><flow id="flow_2" type="car" route="route_east_west" begin="0" end="3600" vehsPerHour="200"/><flow id="flow_3" type="car" route="route_west_east" begin="0" end="3600" vehsPerHour="200"/><flow id="flow_4" type="car" route="route_clockwise" begin="0" end="3600" vehsPerHour="100"/><flow id="flow_5" type="car" route="route_counterclockwise" begin="0" end="3600" vehsPerHour="100"/><vehicle id="truck_0" type="truck" route="route_south_north" depart="2541"/><vehicle id="truck_1" type="truck" route="route_east_west" depart="3002"/><vehicle id="truck_2" type="truck" route="route_clockwise" depart="2206"/><vehicle id="emergency_3" type="emergency" route="route_west_east" depart="3578"/><vehicle id="truck_4" type="truck" route="route_east_west" depart="2467"/><vehicle id="bus_5" type="bus" route="route_clockwise" depart="1126"/><vehicle id="emergency_6" type="emergency" route="route_south_north" depart="1110"/><vehicle id="truck_7" type="truck" route="route_north_south" depart="149"/><vehicle id="bus_8" type="bus" route="route_south_north" depart="1107"/><vehicle id="truck_9" type="truck" route="route_counterclockwise" depart="2102"/><vehicle id="emergency_10" type="emergency" route="route_counterclockwise" depart="1682"/><vehicle id="bus_11" type="bus" route="route_west_east" depart="282"/></routes>
