<?xml version="1.0" encoding="UTF-8"?>
<routes xmlns:xsi="http://www.w3.org/2001/XMLSchema-instance" xsi:noNamespaceSchemaLocation="http://sumo.dlr.de/xsd/routes_file.xsd">
    <!-- Vehicle type definitions -->
    <vType id="car" accel="2.9" decel="7.5" sigma="0.5" length="5" minGap="2.5" maxSpeed="16.67" guiShape="passenger"/>
    <vType id="bus" accel="1.2" decel="5.0" sigma="0.5" length="12" minGap="3.0" maxSpeed="12.5" guiShape="bus"/>
    <vType id="truck" accel="1.0" decel="5.0" sigma="0.5" length="15" minGap="3.0" maxSpeed="13.89" guiShape="truck"/>
    <vType id="emergency" accel="3.5" decel="9.0" sigma="0.5" length="5" minGap="2.5" maxSpeed="22.22" guiShape="emergency" vClass="emergency"/>
    
    <!-- Route definitions for 3x3 grid -->
    <!-- Horizontal routes (west to east) -->
    <route id="route_WE_0" edges="A0B0 B0C0"/>
    <route id="route_WE_1" edges="A1B1 B1C1"/>
    <route id="route_WE_2" edges="A2B2 B2C2"/>
    
    <!-- Horizontal routes (east to west) -->
    <route id="route_EW_0" edges="C0B0 B0A0"/>
    <route id="route_EW_1" edges="C1B1 B1A1"/>
    <route id="route_EW_2" edges="C2B2 B2A2"/>
    
    <!-- Vertical routes (south to north) -->
    <route id="route_SN_0" edges="A0A1 A1A2"/>
    <route id="route_SN_1" edges="B0B1 B1B2"/>
    <route id="route_SN_2" edges="C0C1 C1C2"/>
    
    <!-- Vertical routes (north to south) -->
    <route id="route_NS_0" edges="A2A1 A1A0"/>
    <route id="route_NS_1" edges="B2B1 B1B0"/>
    <route id="route_NS_2" edges="C2C1 C1C0"/>
    
    <!-- Diagonal routes -->
    <route id="route_NW_SE" edges="A2A1 A1B1 B1C1 C1C0"/>
    <route id="route_NE_SW" edges="C2C1 C1B1 B1A1 A1A0"/>
    <route id="route_SW_NE" edges="A0A1 A1B1 B1C1 C1C2"/>
    <route id="route_SE_NW" edges="C0C1 C1B1 B1A1 A1A2"/>
    
    <!-- Light traffic flows -->
    <flow id="flow_WE_0" type="car" route="route_WE_0" begin="0" end="3600" vehsPerHour="200"/>
    <flow id="flow_WE_1" type="car" route="route_WE_1" begin="0" end="3600" vehsPerHour="200"/>
    <flow id="flow_WE_2" type="car" route="route_WE_2" begin="0" end="3600" vehsPerHour="200"/>
    
    <flow id="flow_EW_0" type="car" route="route_EW_0" begin="0" end="3600" vehsPerHour="200"/>
    <flow id="flow_EW_1" type="car" route="route_EW_1" begin="0" end="3600" vehsPerHour="200"/>
    <flow id="flow_EW_2" type="car" route="route_EW_2" begin="0" end="3600" vehsPerHour="200"/>
    
    <flow id="flow_SN_0" type="car" route="route_SN_0" begin="0" end="3600" vehsPerHour="150"/>
    <flow id="flow_SN_1" type="car" route="route_SN_1" begin="0" end="3600" vehsPerHour="150"/>
    <flow id="flow_SN_2" type="car" route="route_SN_2" begin="0" end="3600" vehsPerHour="150"/>
    
    <flow id="flow_NS_0" type="car" route="route_NS_0" begin="0" end="3600" vehsPerHour="150"/>
    <flow id="flow_NS_1" type="car" route="route_NS_1" begin="0" end="3600" vehsPerHour="150"/>
    <flow id="flow_NS_2" type="car" route="route_NS_2" begin="0" end="3600" vehsPerHour="150"/>
    
    <flow id="flow_NW_SE" type="car" route="route_NW_SE" begin="0" end="3600" vehsPerHour="50"/>
    <flow id="flow_NE_SW" type="car" route="route_NE_SW" begin="0" end="3600" vehsPerHour="50"/>
    <flow id="flow_SW_NE" type="car" route="route_SW_NE" begin="0" end="3600" vehsPerHour="50"/>
    <flow id="flow_SE_NW" type="car" route="route_SE_NW" begin="0" end="3600" vehsPerHour="50"/>
    
    <!-- Add some random vehicle instances -->
    <vehicle id="bus_1" type="bus" route="route_WE_1" depart="100"/>
    <vehicle id="truck_1" type="truck" route="route_NS_1" depart="150"/>
    <vehicle id="emergency_1" type="emergency" route="route_EW_0" depart="200"/>
    <vehicle id="bus_2" type="bus" route="route_SN_2" depart="300"/>
    <vehicle id="truck_2" type="truck" route="route_EW_2" depart="350"/>
    <vehicle id="emergency_2" type="emergency" route="route_NW_SE" depart="400"/>
</routes>