<?xml version='1.0' encoding='UTF-8'?>
<routes xmlns:xsi="http://www.w3.org/2001/XMLSchema-instance" xsi:noNamespaceSchemaLocation="http://sumo.dlr.de/xsd/routes_file.xsd">
    <!-- vehicle type definitions -->
    <vType id="car" accel="2.9" decel="7.5" sigma="0.5" length="5" minGap="2.5" maxSpeed="16.67" guiShape="passenger"/>
    <vType id="bus" accel="1.2" decel="5.0" sigma="0.5" length="12" minGap="3.0" maxSpeed="12.5" guiShape="bus"/>
    <vType id="truck" accel="1.0" decel="5.0" sigma="0.5" length="15" minGap="3.0" maxSpeed="13.89" guiShape="truck"/>
    <vType id="emergency" accel="3.5" decel="9.0" sigma="0.5" length="5" minGap="2.5" maxSpeed="22.22" guiShape="emergency" vClass="emergency"/>
    
    <!-- route definitions using the grid network -->
    <route id="route_north_south" edges="A1A0 A0B0"/>
    <route id="route_south_north" edges="B0A0 A0A1"/>
    <route id="route_east_west" edges="B1B0 B0A0"/>
    <route id="route_west_east" edges="A0B0 B0B1"/>
    <route id="route_clockwise" edges="A0A1 A1B1 B1B0 B0A0"/>
    <route id="route_counterclockwise" edges="A0B0 B0B1 B1A1 A1A0"/>
    
    <!-- flow definitions will be added by specific scenarios -->
<flow id="flow_0" type="car" route="route_north_south" begin="0" end="3600" vehsPerHour="300"/><flow id="flow_1" type="car" route="route_south_north" begin="0" end="3600" vehsPerHour="300"/><flow id="flow_2" type="car" route="route_east_west" begin="0" end="3600" vehsPerHour="200"/><flow id="flow_3" type="car" route="route_west_east" begin="0" end="3600" vehsPerHour="200"/><flow id="flow_4" type="car" route="route_clockwise" begin="0" end="3600" vehsPerHour="100"/><flow id="flow_5" type="car" route="route_counterclockwise" begin="0" end="3600" vehsPerHour="100"/><vehicle id="truck_0" type="truck" route="route_south_north" depart="2541"/><vehicle id="truck_1" type="truck" route="route_east_west" depart="3002"/><vehicle id="truck_2" type="truck" route="route_clockwise" depart="2206"/><vehicle id="emergency_3" type="emergency" route="route_west_east" depart="3578"/><vehicle id="truck_4" type="truck" route="route_east_west" depart="2467"/><vehicle id="bus_5" type="bus" route="route_clockwise" depart="1126"/><vehicle id="emergency_6" type="emergency" route="route_south_north" depart="1110"/><vehicle id="truck_7" type="truck" route="route_north_south" depart="149"/><vehicle id="bus_8" type="bus" route="route_south_north" depart="1107"/><vehicle id="truck_9" type="truck" route="route_counterclockwise" depart="2102"/><vehicle id="emergency_10" type="emergency" route="route_counterclockwise" depart="1682"/><vehicle id="bus_11" type="bus" route="route_west_east" depart="282"/><flow id="flow_0" type="car" route="route_north_south" begin="0" end="3600" vehsPerHour="600"/><flow id="flow_1" type="car" route="route_south_north" begin="0" end="3600" vehsPerHour="600"/><flow id="flow_2" type="car" route="route_east_west" begin="0" end="3600" vehsPerHour="400"/><flow id="flow_3" type="car" route="route_west_east" begin="0" end="3600" vehsPerHour="400"/><flow id="flow_4" type="car" route="route_clockwise" begin="0" end="3600" vehsPerHour="200"/><flow id="flow_5" type="car" route="route_counterclockwise" begin="0" end="3600" vehsPerHour="200"/><vehicle id="truck_0" type="truck" route="route_east_west" depart="522"/><vehicle id="emergency_1" type="emergency" route="route_clockwise" depart="919"/><vehicle id="emergency_2" type="emergency" route="route_south_north" depart="3227"/><vehicle id="bus_3" type="bus" route="route_clockwise" depart="3465"/><vehicle id="emergency_4" type="emergency" route="route_counterclockwise" depart="3284"/><vehicle id="emergency_5" type="emergency" route="route_west_east" depart="913"/><vehicle id="bus_6" type="bus" route="route_east_west" depart="1603"/><vehicle id="truck_7" type="truck" route="route_east_west" depart="3163"/><vehicle id="emergency_8" type="emergency" route="route_east_west" depart="3128"/><vehicle id="truck_9" type="truck" route="route_south_north" depart="2492"/><vehicle id="emergency_10" type="emergency" route="route_south_north" depart="1687"/><vehicle id="emergency_11" type="emergency" route="route_east_west" depart="2578"/><vehicle id="bus_12" type="bus" route="route_counterclockwise" depart="1968"/><vehicle id="truck_13" type="truck" route="route_south_north" depart="2739"/><vehicle id="bus_14" type="bus" route="route_north_south" depart="1187"/><vehicle id="bus_15" type="bus" route="route_counterclockwise" depart="3283"/><vehicle id="bus_16" type="bus" route="route_east_west" depart="1844"/><vehicle id="bus_17" type="bus" route="route_south_north" depart="103"/><vehicle id="truck_18" type="truck" route="route_north_south" depart="3121"/><vehicle id="truck_19" type="truck" route="route_south_north" depart="2261"/><vehicle id="emergency_20" type="emergency" route="route_south_north" depart="1268"/><vehicle id="emergency_21" type="emergency" route="route_north_south" depart="3281"/><vehicle id="emergency_22" type="emergency" route="route_west_east" depart="26"/><vehicle id="truck_23" type="truck" route="route_south_north" depart="2075"/></routes>
