<?xml version="1.0" encoding="UTF-8"?>
<routes xmlns:xsi="http://www.w3.org/2001/XMLSchema-instance" xsi:noNamespaceSchemaLocation="http://sumo.dlr.de/xsd/routes_file.xsd">
    <!-- Vehicle type definitions -->
    <vType id="car" accel="2.9" decel="7.5" sigma="0.5" length="5" minGap="2.5" maxSpeed="16.67" guiShape="passenger"/>
    <vType id="bus" accel="1.2" decel="5.0" sigma="0.5" length="12" minGap="3.0" maxSpeed="12.5" guiShape="bus"/>
    <vType id="truck" accel="1.0" decel="5.0" sigma="0.5" length="15" minGap="3.0" maxSpeed="13.89" guiShape="truck"/>
    <vType id="emergency" accel="3.5" decel="9.0" sigma="0.5" length="5" minGap="2.5" maxSpeed="22.22" guiShape="emergency" vClass="emergency"/>
    
    <!-- Route definitions for 3x3 grid -->
    <!-- Horizontal routes (west to east) -->
    <route id="route_WE_0" edges="A0B0 B0C0"/>
    <route id="route_WE_1" edges="A1B1 B1C1"/>
    <route id="route_WE_2" edges="A2B2 B2C2"/>
    
    <!-- Horizontal routes (east to west) -->
    <route id="route_EW_0" edges="C0B0 B0A0"/>
    <route id="route_EW_1" edges="C1B1 B1A1"/>
    <route id="route_EW_2" edges="C2B2 B2A2"/>
    
    <!-- Vertical routes (south to north) -->
    <route id="route_SN_0" edges="A0A1 A1A2"/>
    <route id="route_SN_1" edges="B0B1 B1B2"/>
    <route id="route_SN_2" edges="C0C1 C1C2"/>
    
    <!-- Vertical routes (north to south) -->
    <route id="route_NS_0" edges="A2A1 A1A0"/>
    <route id="route_NS_1" edges="B2B1 B1B0"/>
    <route id="route_NS_2" edges="C2C1 C1C0"/>
    
    <!-- Diagonal routes -->
    <route id="route_NW_SE" edges="A2A1 A1B1 B1C1 C1C0"/>
    <route id="route_NE_SW" edges="C2C1 C1B1 B1A1 A1A0"/>
    <route id="route_SW_NE" edges="A0A1 A1B1 B1C1 C1C2"/>
    <route id="route_SE_NW" edges="C0C1 C1B1 B1A1 A1A2"/>
    
    <!-- Pre-peak moderate traffic (0-600s) -->
    <flow id="flow_pre_WE_0" type="car" route="route_WE_0" begin="0" end="600" vehsPerHour="400"/>
    <flow id="flow_pre_WE_1" type="car" route="route_WE_1" begin="0" end="600" vehsPerHour="500"/>
    <flow id="flow_pre_WE_2" type="car" route="route_WE_2" begin="0" end="600" vehsPerHour="300"/>
    
    <flow id="flow_pre_EW_0" type="car" route="route_EW_0" begin="0" end="600" vehsPerHour="300"/>
    <flow id="flow_pre_EW_1" type="car" route="route_EW_1" begin="0" end="600" vehsPerHour="350"/>
    <flow id="flow_pre_EW_2" type="car" route="route_EW_2" begin="0" end="600" vehsPerHour="250"/>
    
    <flow id="flow_pre_SN_0" type="car" route="route_SN_0" begin="0" end="600" vehsPerHour="250"/>
    <flow id="flow_pre_SN_1" type="car" route="route_SN_1" begin="0" end="600" vehsPerHour="200"/>
    <flow id="flow_pre_SN_2" type="car" route="route_SN_2" begin="0" end="600" vehsPerHour="200"/>
    
    <flow id="flow_pre_NS_0" type="car" route="route_NS_0" begin="0" end="600" vehsPerHour="600"/>
    <flow id="flow_pre_NS_1" type="car" route="route_NS_1" begin="0" end="600" vehsPerHour="550"/>
    <flow id="flow_pre_NS_2" type="car" route="route_NS_2" begin="0" end="600" vehsPerHour="500"/>
    
    <!-- Peak hour heavy traffic (600-1800s) -->
    <flow id="flow_peak_WE_0" type="car" route="route_WE_0" begin="600" end="1800" vehsPerHour="800"/>
    <flow id="flow_peak_WE_1" type="car" route="route_WE_1" begin="600" end="1800" vehsPerHour="1000"/>
    <flow id="flow_peak_WE_2" type="car" route="route_WE_2" begin="600" end="1800" vehsPerHour="700"/>
    
    <flow id="flow_peak_EW_0" type="car" route="route_EW_0" begin="600" end="1800" vehsPerHour="500"/>
    <flow id="flow_peak_EW_1" type="car" route="route_EW_1" begin="600" end="1800" vehsPerHour="600"/>
    <flow id="flow_peak_EW_2" type="car" route="route_EW_2" begin="600" end="1800" vehsPerHour="450"/>
    
    <flow id="flow_peak_SN_0" type="car" route="route_SN_0" begin="600" end="1800" vehsPerHour="500"/>
    <flow id="flow_peak_SN_1" type="car" route="route_SN_1" begin="600" end="1800" vehsPerHour="450"/>
    <flow id="flow_peak_SN_2" type="car" route="route_SN_2" begin="600" end="1800" vehsPerHour="400"/>
    
    <flow id="flow_peak_NS_0" type="car" route="route_NS_0" begin="600" end="1800" vehsPerHour="1200"/>
    <flow id="flow_peak_NS_1" type="car" route="route_NS_1" begin="600" end="1800" vehsPerHour="1100"/>
    <flow id="flow_peak_NS_2" type="car" route="route_NS_2" begin="600" end="1800" vehsPerHour="1000"/>
    
    <flow id="flow_peak_NW_SE" type="car" route="route_NW_SE" begin="600" end="1800" vehsPerHour="250"/>
    <flow id="flow_peak_NE_SW" type="car" route="route_NE_SW" begin="600" end="1800" vehsPerHour="350"/>
    <flow id="flow_peak_SW_NE" type="car" route="route_SW_NE" begin="600" end="1800" vehsPerHour="200"/>
    <flow id="flow_peak_SE_NW" type="car" route="route_SE_NW" begin="600" end="1800" vehsPerHour="150"/>
    
    <!-- Post-peak moderate traffic (1800-3600s) -->
    <flow id="flow_post_WE_0" type="car" route="route_WE_0" begin="1800" end="3600" vehsPerHour="350"/>
    <flow id="flow_post_WE_1" type="car" route="route_WE_1" begin="1800" end="3600" vehsPerHour="400"/>
    <flow id="flow_post_WE_2" type="car" route="route_WE_2" begin="1800" end="3600" vehsPerHour="300"/>
    
    <flow id="flow_post_EW_0" type="car" route="route_EW_0" begin="1800" end="3600" vehsPerHour="350"/>
    <flow id="flow_post_EW_1" type="car" route="route_EW_1" begin="1800" end="3600" vehsPerHour="400"/>
    <flow id="flow_post_EW_2" type="car" route="route_EW_2" begin="1800" end="3600" vehsPerHour="300"/>
    
    <flow id="flow_post_SN_0" type="car" route="route_SN_0" begin="1800" end="3600" vehsPerHour="400"/>
    <flow id="flow_post_SN_1" type="car" route="route_SN_1" begin="1800" end="3600" vehsPerHour="350"/>
    <flow id="flow_post_SN_2" type="car" route="route_SN_2" begin="1800" end="3600" vehsPerHour="300"/>
    
    <flow id="flow_post_NS_0" type="car" route="route_NS_0" begin="1800" end="3600" vehsPerHour="600"/>
    <flow id="flow_post_NS_1" type="car" route="route_NS_1" begin="1800" end="3600" vehsPerHour="550"/>
    <flow id="flow_post_NS_2" type="car" route="route_NS_2" begin="1800" end="3600" vehsPerHour="500"/>
    
    <!-- Add regular vehicles throughout simulation -->
    <vehicle id="bus_1" type="bus" route="route_WE_1" depart="100"/>
    <vehicle id="truck_1" type="truck" route="route_NS_1" depart="150"/>
    <vehicle id="emergency_1" type="emergency" route="route_EW_0" depart="200"/>
    <vehicle id="bus_2" type="bus" route="route_SN_2" depart="300"/>
    <vehicle id="truck_2" type="truck" route="route_EW_2" depart="350"/>
    <vehicle id="emergency_2" type="emergency" route="route_NW_SE" depart="400"/>
    <vehicle id="bus_3" type="bus" route="route_WE_0" depart="700"/>
    <vehicle id="truck_3" type="truck" route="route_NS_2" depart="750"/>
    <vehicle id="emergency_3" type="emergency" route="route_EW_1" depart="800"/>
    <vehicle id="bus_4" type="bus" route="route_SN_0" depart="900"/>
    <vehicle id="truck_4" type="truck" route="route_EW_1" depart="950"/>
    <vehicle id="emergency_4" type="emergency" route="route_SE_NW" depart="1000"/>
    <vehicle id="bus_5" type="bus" route="route_NS_1" depart="1200"/>
    <vehicle id="truck_5" type="truck" route="route_WE_2" depart="1250"/>
    <vehicle id="emergency_5" type="emergency" route="route_NS_0" depart="1300"/>
    <vehicle id="bus_6" type="bus" route="route_EW_0" depart="1900"/>
    <vehicle id="truck_6" type="truck" route="route_SN_1" depart="1950"/>
    <vehicle id="emergency_6" type="emergency" route="route_WE_1" depart="2000"/>
    <vehicle id="bus_7" type="bus" route="route_NS_2" depart="2100"/>
    <vehicle id="truck_7" type="truck" route="route_EW_0" depart="2200"/>
    <vehicle id="emergency_7" type="emergency" route="route_SW_NE" depart="2300"/>
</routes>