<?xml version="1.0" encoding="UTF-8"?>
<routes xmlns:xsi="http://www.w3.org/2001/XMLSchema-instance" xsi:noNamespaceSchemaLocation="http://sumo.dlr.de/xsd/routes_file.xsd">
    <!-- vehicle type definitions -->
    <vType id="car" accel="2.9" decel="7.5" sigma="0.5" length="5" minGap="2.5" maxSpeed="16.67" guiShape="passenger"/>
    <vType id="bus" accel="1.2" decel="5.0" sigma="0.5" length="12" minGap="3.0" maxSpeed="12.5" guiShape="bus"/>
    <vType id="truck" accel="1.0" decel="5.0" sigma="0.5" length="15" minGap="3.0" maxSpeed="13.89" guiShape="truck"/>
    <vType id="emergency" accel="3.5" decel="9.0" sigma="0.5" length="5" minGap="2.5" maxSpeed="22.22" guiShape="emergency" vClass="emergency"/>
    
    <!-- route definitions using the grid network -->
    <route id="route_north_south" edges="A1A0 A0B0"/>
    <route id="route_south_north" edges="B0A0 A0A1"/>
    <route id="route_east_west" edges="B1B0 B0A0"/>
    <route id="route_west_east" edges="A0B0 B0B1"/>
    <route id="route_clockwise" edges="A0A1 A1B1 B1B0 B0A0"/>
    <route id="route_counterclockwise" edges="A0B0 B0B1 B1A1 A1A0"/>
    
    <!-- flow definitions will be added by specific scenarios -->
</routes>