<?xml version="1.0" encoding="UTF-8"?>
<configuration xmlns:xsi="http://www.w3.org/2001/XMLSchema-instance" xsi:noNamespaceSchemaLocation="http://sumo.dlr.de/xsd/sumoConfiguration.xsd">
    <input>
        <net-file value="C:\Users\Theon\Downloads\traffic_ai_comparison\config\maps\traffic_grid.net.xml"/>
        <route-files value="C:\Users\Theon\Downloads\traffic_ai_comparison\config\scenarios\peak_hour_morning.rou.xml"/>
    </input>
    <time>
        <begin value="0"/>
        <end value="3600"/>
        <step-length value="1.0"/>
    </time>
    <processing>
        <time-to-teleport value="-1"/>
    </processing>
    <report>
        <verbose value="false"/>
        <no-step-log value="true"/>
    </report>
</configuration>