<configuration>
    <input>
        <net-file value="traffic_grid_3x3.net.xml"/>
        <route-files value="../scenarios/grid_routes_3x3.rou.xml"/>
    </input>
    <time>
        <begin value="0"/>
        <end value="1000"/>
    </time>
</configuration>