<configuration>
    <input>
        <net-file value="grid_network.net.xml"/>
        <route-files value="grid_routes.rou.xml"/>
    </input>
    <time>
        <begin value="0"/>
        <end value="1000"/>
    </time>
</configuration>