<routes>
    <vType id="car" accel="0.8" decel="4.5" sigma="0.5" length="5" minGap="2.5" maxSpeed="16.67" guiShape="passenger"/>
    
    <!-- Create routes using your actual edge IDs -->
    <route id="route0" edges="A0B0 B0B1 B1A1"/>
    <route id="route1" edges="B1A1 A1A0 A0B0"/>
    <route id="route2" edges="A1B1 B1B0 B0A0"/>
    <route id="route3" edges="B0A0 A0A1 A1B1"/>
    
    <!-- Add flows for continuous vehicle insertion -->
    <flow id="flow0" type="car" route="route0" begin="0" end="1000" vehsPerHour="300"/>
    <flow id="flow1" type="car" route="route1" begin="0" end="1000" vehsPerHour="300"/>
    <flow id="flow2" type="car" route="route2" begin="0" end="1000" vehsPerHour="300"/>
    <flow id="flow3" type="car" route="route3" begin="0" end="1000" vehsPerHour="300"/>
</routes>