<?xml version="1.0" encoding="UTF-8"?>
<routes xmlns:xsi="http://www.w3.org/2001/XMLSchema-instance" xsi:noNamespaceSchemaLocation="http://sumo.dlr.de/xsd/routes_file.xsd">
    <vType id="car" accel="2.6" decel="4.5" sigma="0.5" length="5" minGap="2.5" maxSpeed="16.67" guiShape="passenger"/>
    
    <!-- Routes -->
    <route id="route0" edges="A0B0 B0B1 B1A1 A1A0"/>
    <route id="route1" edges="A1B1 B1B0 B0A0 A0A1"/>
    <route id="route2" edges="A0A1 A1B1 B1B0 B0A0"/>
    <route id="route3" edges="B0A0 A0A1 A1B1 B1B0"/>
    
    <!-- Traffic flows -->
    <flow id="flow0" type="car" route="route0" begin="0" end="1000" vehsPerHour="300"/>
    <flow id="flow1" type="car" route="route1" begin="0" end="1000" vehsPerHour="300"/>
    <flow id="flow2" type="car" route="route2" begin="0" end="1000" vehsPerHour="300"/>
    <flow id="flow3" type="car" route="route3" begin="0" end="1000" vehsPerHour="300"/>
</routes>