<?xml version="1.0" encoding="UTF-8"?>
<net version="1.9" junctionCornerDetail="5" limitTurnSpeed="5.50" xmlns:xsi="http://www.w3.org/2001/XMLSchema-instance" xsi:noNamespaceSchemaLocation="http://sumo.dlr.de/xsd/net_file.xsd">
    <location netOffset="0.00,0.00" convBoundary="0.00,0.00,100.00,100.00" origBoundary="0.00,0.00,100.00,100.00" projParameter="!"/>
    
    <edge id=":A0_0" function="internal">
        <lane id=":A0_0_0" index="0" speed="6.51" length="9.03" shape="3.20,1.60 3.20,10.63"/>
    </edge>
    <edge id=":A0_1" function="internal">
        <lane id=":A0_1_0" index="0" speed="7.33" length="13.10" shape="3.20,1.60 3.68,5.17 5.13,7.78 7.53,9.42 10.90,10.09"/>
    </edge>
    <edge id=":A0_2" function="internal">
        <lane id=":A0_2_0" index="0" speed="6.51" length="9.03" shape="10.90,-3.20 1.87,-3.20"/>
    </edge>
    <edge id=":A0_3" function="internal">
        <lane id=":A0_3_0" index="0" speed="7.33" length="13.10" shape="10.90,-3.20 7.33,-2.72 4.72,-1.27 3.08,1.13 2.41,4.50"/>
    </edge>
    
    <edge id="A0A1" from="A0" to="A1" priority="1" length="80.0">
        <lane id="A0A1_0" index="0" speed="13.89" length="80.0" shape="3.20,10.63 3.20,91.60"/>
    </edge>
    <edge id="A0B0" from="A0" to="B0" priority="1" length="80.0">
        <lane id="A0B0_0" index="0" speed="13.89" length="80.0" shape="4.53,-1.60 83.00,-1.60"/>
    </edge>
    <edge id="A1A0" from="A1" to="A0" priority="1" length="80.0">
        <lane id="A1A0_0" index="0" speed="13.89" length="80.0" shape="-1.60,85.47 -1.60,4.50"/>
    </edge>
    <edge id="A1B1" from="A1" to="B1" priority="1" length="80.0">
        <lane id="A1B1_0" index="0" speed="13.89" length="80.0" shape="10.90,88.40 83.00,88.40"/>
    </edge>
    <edge id="B0A0" from="B0" to="A0" priority="1" length="80.0">
        <lane id="B0A0_0" index="0" speed="13.89" length="80.0" shape="86.47,3.20 10.90,3.20"/>
    </edge>
    <edge id="B0B1" from="B0" to="B1" priority="1" length="80.0">
        <lane id="B0B1_0" index="0" speed="13.89" length="80.0" shape="90.70,10.90 90.70,85.50"/>
    </edge>
    <edge id="B1A1" from="B1" to="A1" priority="1" length="80.0">
        <lane id="B1A1_0" index="0" speed="13.89" length="80.0" shape="86.47,93.20 10.90,93.20"/>
    </edge>
    <edge id="B1B0" from="B1" to="B0" priority="1" length="80.0">
        <lane id="B1B0_0" index="0" speed="13.89" length="80.0" shape="87.80,85.50 87.80,-4.50"/>
    </edge>
    
    <tlLogic id="A0" type="static" programID="0" offset="0">
        <phase duration="31" state="GrGr"/>
        <phase duration="4" state="yryr"/>
        <phase duration="31" state="rGrG"/>
        <phase duration="4" state="ryry"/>
    </tlLogic>
    
    <tlLogic id="A1" type="static" programID="0" offset="0">
        <phase duration="31" state="GrGr"/>
        <phase duration="4" state="yryr"/>
        <phase duration="31" state="rGrG"/>
        <phase duration="4" state="ryry"/>
    </tlLogic>
    
    <tlLogic id="B0" type="static" programID="0" offset="0">
        <phase duration="31" state="GrGr"/>
        <phase duration="4" state="yryr"/>
        <phase duration="31" state="rGrG"/>
        <phase duration="4" state="ryry"/>
    </tlLogic>
    
    <tlLogic id="B1" type="static" programID="0" offset="0">
        <phase duration="31" state="GrGr"/>
        <phase duration="4" state="yryr"/>
        <phase duration="31" state="rGrG"/>
        <phase duration="4" state="ryry"/>
    </tlLogic>
    
    <junction id="A0" type="traffic_light" x="0.00" y="0.00" incLanes="A1A0_0 B0A0_0" intLanes=":A0_0_0 :A0_1_0 :A0_2_0 :A0_3_0" shape="0.00,10.63 5.20,10.63 5.37,8.34 5.87,6.54 6.70,5.20 7.87,4.31 9.37,3.87 11.20,3.20 11.20,-4.80 0.00,-4.80">
        <request index="0" response="0000" foes="1000" cont="0"/>
        <request index="1" response="0100" foes="0100" cont="0"/>
        <request index="2" response="0000" foes="0010" cont="0"/>
        <request index="3" response="0001" foes="0001" cont="0"/>
    </junction>
    
    <junction id="A1" type="traffic_light" x="0.00" y="100.00" incLanes="A0A1_0 B1A1_0" intLanes=":A1_0_0 :A1_1_0 :A1_2_0 :A1_3_0" shape="0.00,98.40 5.20,98.40 5.37,96.34 5.87,94.54 6.70,93.20 7.87,92.31 9.37,91.87 11.20,91.20 11.20,86.20 0.00,86.20">
        <request index="0" response="0000" foes="1000" cont="0"/>
        <request index="1" response="0100" foes="0100" cont="0"/>
        <request index="2" response="0000" foes="0010" cont="0"/>
        <request index="3" response="0001" foes="0001" cont="0"/>
    </junction>
    
    <junction id="B0" type="traffic_light" x="100.00" y="0.00" incLanes="B1B0_0 A0B0_0" intLanes=":B0_0_0 :B0_1_0 :B0_2_0 :B0_3_0" shape="85.80,0.00 92.80,0.00 92.57,-1.97 92.01,-3.64 91.13,-4.83 89.91,-5.54 88.37,-5.76 86.50,-5.50 86.50,0.50">
        <request index="0" response="0000" foes="1000" cont="0"/>
        <request index="1" response="0100" foes="0100" cont="0"/>
        <request index="2" response="0000" foes="0010" cont="0"/>
        <request index="3" response="0001" foes="0001" cont="0"/>
    </junction>
    
    <junction id="B1" type="traffic_light" x="100.00" y="100.00" incLanes="B0B1_0 A1B1_0" intLanes=":B1_0_0 :B1_1_0 :B1_2_0 :B1_3_0" shape="85.80,95.00 92.80,95.00 92.57,93.03 92.01,91.36 91.13,90.17 89.91,89.46 88.37,89.24 86.50,89.50 86.50,95.50">
        <request index="0" response="0000" foes="1000" cont="0"/>
        <request index="1" response="0100" foes="0100" cont="0"/>
        <request index="2" response="0000" foes="0010" cont="0"/>
        <request index="3" response="0001" foes="0001" cont="0"/>
    </junction>
    
    <connection from="A0A1" to="A1B1" fromLane="0" toLane="0" via=":A1_0_0" tl="A1" linkIndex="0" dir="s" state="O"/>
    <connection from="A0B0" to="B0B1" fromLane="0" toLane="0" via=":B0_2_0" tl="B0" linkIndex="2" dir="r" state="O"/>
    <connection from="A1A0" to="A0A1" fromLane="0" toLane="0" via=":A0_0_0" tl="A0" linkIndex="0" dir="s" state="O"/>
    <connection from="A1B1" to="B1B0" fromLane="0" toLane="0" via=":B1_2_0" tl="B1" linkIndex="2" dir="r" state="O"/>
    <connection from="B0A0" to="A0A1" fromLane="0" toLane="0" via=":A0_2_0" tl="A0" linkIndex="2" dir="r" state="O"/>
    <connection from="B0B1" to="B1A1" fromLane="0" toLane="0" via=":B1_0_0" tl="B1" linkIndex="0" dir="r" state="O"/>
    <connection from="B1A1" to="A1A0" fromLane="0" toLane="0" via=":A1_2_0" tl="A1" linkIndex="2" dir="r" state="O"/>
    <connection from="B1B0" to="B0A0" fromLane="0" toLane="0" via=":B0_0_0" tl="B0" linkIndex="0" dir="r" state="O"/>
    
    <connection from=":A0_0" to="A0A1" fromLane="0" toLane="0" dir="s" state="M"/>
    <connection from=":A0_1" to="A0B0" fromLane="0" toLane="0" dir="l" state="M"/>
    <connection from=":A0_2" to="A0A1" fromLane="0" toLane="0" dir="r" state="M"/>
    <connection from=":A0_3" to="A0B0" fromLane="0" toLane="0" dir="s" state="M"/>
    
    <connection from=":A1_0" to="A1B1" fromLane="0" toLane="0" dir="s" state="M"/>
    <connection from=":A1_1" to="A1A0" fromLane="0" toLane="0" dir="l" state="M"/>
    <connection from=":A1_2" to="A1B1" fromLane="0" toLane="0" dir="r" state="M"/>
    <connection from=":A1_3" to="A1A0" fromLane="0" toLane="0" dir="s" state="M"/>
    
    <connection from=":B0_0" to="B0A0" fromLane="0" toLane="0" dir="r" state="M"/>
    <connection from=":B0_1" to="B0B1" fromLane="0" toLane="0" dir="s" state="M"/>
    <connection from=":B0_2" to="B0B1" fromLane="0" toLane="0" dir="r" state="M"/>
    <connection from=":B0_3" to="B0A0" fromLane="0" toLane="0" dir="s" state="M"/>
    
    <connection from=":B1_0" to="B1A1" fromLane="0" toLane="0" dir="r" state="M"/>
    <connection from=":B1_1" to="B1B0" fromLane="0" toLane="0" dir="s" state="M"/>
    <connection from=":B1_2" to="B1B0" fromLane="0" toLane="0" dir="r" state="M"/>
    <connection from=":B1_3" to="B1A1" fromLane="0" toLane="0" dir="s" state="M"/>
</net>